Circuit: * C:\Documents and Settings\bl12960\Desktop\Personal\LTspice\nv\NV_SPICE_13.asc

Limiting rise time of source v1 to 0.0001
Limiting fall time of source v1 to 0.0001
Direct Newton iteration for .op point succeeded.

Date: Mon Feb 02 19:12:11 2009
Total elapsed time: 0.062 seconds.

tnom = 27
temp = 27
method = modified trap
totiter = 2429
traniter = 2426
tranpoints = 1214
accept = 1205
rejected = 9
matrix size = 5
fillins = 0
solver = Normal
Matrix Compiler1: 96 bytes object code size  3.8/3.8/[3.2]
Matrix Compiler2: 327 bytes object code size  3.8/3.8/[3.3]


