Circuit: * C:\Program Files\LTC\SwCADIII\NandV\NV_SPICE_11.asc

Direct Newton iteration for .op point succeeded.
Date: Thu Jul 24 16:03:49 2008
Total elapsed time: 0.328 seconds.

tnom = 27
temp = 27
method = trap
totiter = 3
traniter = 0
tranpoints = 0
accept = 0
rejected = 0
trancuriters = 3
matrix size = 1
fillins = 0
solver = Normal

