Circuit: * C:\Documents and Settings\bl12960\Desktop\spice-models\Full-wave.asc

C1: both pins shorted together -- ignoring.
Direct Newton iteration for .op point succeeded.

Date: Mon Feb 02 18:42:09 2009
Total elapsed time: 0.079 seconds.

tnom = 27
temp = 27
method = modified trap
totiter = 2261
traniter = 2250
tranpoints = 1042
accept = 1042
rejected = 0
matrix size = 4
fillins = 1
solver = Normal
Matrix Compiler1: 226 bytes object code size  3.9/2.9/[2.9]
Matrix Compiler2: 290 bytes object code size  3.6/4.0/[3.2]


