Circuit: * C:\Documents and Settings\bl12960\Desktop\spice-models\Half-wave.asc

Direct Newton iteration for .op point succeeded.

Date: Mon Feb 02 18:19:03 2009
Total elapsed time: 0.047 seconds.

tnom = 27
temp = 27
method = modified trap
totiter = 2464
traniter = 2446
tranpoints = 1158
accept = 1120
rejected = 38
matrix size = 4
fillins = 0
solver = Normal
Matrix Compiler1: off  [3.2]/3.7/3.9
Matrix Compiler2: 248 bytes object code size  3.6/4.0/[3.8]


