Circuit: * C:\Documents and Settings\bl12960\Desktop\Personal\HomePC\Dev\LTspice\spice-models\Transformer.asc

Direct Newton iteration for .op point succeeded.

Date: Mon Feb 02 19:39:54 2009
Total elapsed time: 0.047 seconds.

tnom = 27
temp = 27
method = modified trap
totiter = 2101
traniter = 2098
tranpoints = 1050
accept = 1049
rejected = 1
matrix size = 6
fillins = 0
solver = Normal
Matrix Compiler1: 200 bytes object code size  3.7/3.9/[3.7]
Matrix Compiler2: 394 bytes object code size  4.9/4.2/[3.2]


