Circuit: * C:\Documents and Settings\bl12960\Desktop\Elec101\analog101\Labs\lab04a-Rect-half-wave.asc

.OP point found by inspection.

Date: Sat Jul 02 21:03:01 2011
Total elapsed time: 0.047 seconds.

tnom = 27
temp = 27
method = modified trap
totiter = 2446
traniter = 2446
tranpoints = 1158
accept = 1120
rejected = 38
matrix size = 4
fillins = 0
solver = Normal
Matrix Compiler1: 100 bytes object code size  4.0/3.9/[4.0]
Matrix Compiler2: 248 bytes object code size  3.6/3.7/[3.5]


