Circuit: * C:\Documents and Settings\bl12960\Desktop\Personal\HomePC\Dev\LTspice\spice-models\Transformer2.asc

Direct Newton iteration for .op point succeeded.

Date: Mon Feb 02 19:49:08 2009
Total elapsed time: 0.063 seconds.

tnom = 27
temp = 27
method = modified trap
totiter = 2555
traniter = 2539
tranpoints = 1151
accept = 1103
rejected = 48
matrix size = 8
fillins = 0
solver = Normal
Matrix Compiler1: 300 bytes object code size  4.7/3.6/[3.7]
Matrix Compiler2: 540 bytes object code size  4.1/5.3/[3.7]


